ipss.plugin.multiNet/testData/IEEE300/IEEE300Bus_noHVDC_addXfr_v30.raw
 0,    100.00, 30, 0, 0, 60.00       / October 17, 2016 22:03:30; Simulator Version 19; BuildDate 2015_11_24
 13/05/91 CYME INTERNATIONAL    100.0 1991 S
 IEEE 300-BUS TEST SYSTEM
    1,'1           ', 115.0000,1,     0.000,     0.000,   1,   1,1.0261700,   6.28560,   1
    2,'2           ', 115.0000,1,     0.000,     0.000,   1,   1,1.0331500,   8.04230,   1
    3,'3           ', 230.0000,1,     0.000,     0.000,   1,   1,0.9920500,   6.99180,   1
    4,'4           ', 345.0000,1,     0.000,     0.000,   1,   1,1.0252200,   4.97660,   1
    5,'5           ', 115.0000,1,     0.000,     0.000,   1,   1,1.0165700,   5.01480,   1
    6,'6           ', 115.0000,1,     0.000,     0.000,   1,   1,1.0285200,   7.30490,   1
    7,'7           ', 230.0000,1,     0.000,     0.000,   1,   1,0.9887200,   6.55040,   1
    8,'8           ', 115.0000,1,     0.000,     0.000,   1,   1,1.0122800,   2.61790,   1
    9,'9           ', 115.0000,1,     0.000,     0.000,   1,   1,1.0013601,   3.14640,   1
   10,'10          ', 230.0000,1,     0.000,     0.000,   1,   1,1.0176001,   1.63200,   1
   11,'11          ', 115.0000,1,     0.000,     0.000,   1,   1,1.0041500,   2.72710,   1
   12,'12          ', 230.0000,1,     0.000,     0.000,   1,   1,0.9939900,   5.53910,   1
   13,'13          ', 115.0000,1,     0.000,     0.000,   1,   1,0.9956100,  -0.29700,   1
   14,'14          ', 115.0000,1,     0.000,     0.000,   1,   1,0.9941600,  -4.76840,   1
   15,'15          ', 115.0000,1,     0.000,     0.000,   1,   1,1.0281399,  -8.69580,   1
   16,'16          ', 345.0000,1,     0.000,     0.000,   1,   1,1.0249500,  -2.70700,   1
   17,'17          ', 115.0000,1,     0.000,     0.000,   1,   1,1.0586300, -13.28230,   1
   19,'19          ', 230.0000,1,     0.000,     0.000,   1,   1,0.9786800,   1.30720,   1
   20,'20          ', 115.0000,1,     0.000,     0.000,   1,   1,0.9984100,  -2.21250,   1
   21,'21          ', 230.0000,1,     0.000,     0.000,   1,   1,0.9723800,   1.88680,   1
   22,'22          ', 115.0000,1,     0.000,     0.000,   1,   1,0.9940900,  -1.72850,   1
   23,'23          ', 115.0000,1,     0.000,     0.000,   1,   1,1.0494601,   4.18300,   1
   24,'24          ', 230.0000,1,     0.000,     0.000,   1,   1,1.0044600,   6.28360,   1
   25,'25          ', 115.0000,1,     0.000,     0.000,   1,   1,1.0224900,   1.68270,   1
   26,'26          ', 115.0000,1,     0.000,     0.000,   1,   1,0.9973200,  -1.49350,   1
   27,'27          ', 115.0000,1,     0.000,     0.000,   1,   1,0.9731800,  -4.66220,   1
   33,'33          ', 115.0000,1,     0.000,     0.000,   1,   1,1.0150100, -12.48650,   1
   34,'34          ', 345.0000,1,     0.000,     0.000,   1,   1,1.0345900,  -8.34440,   1
   35,'35          ', 115.0000,1,     0.000,     0.000,   1,   1,0.9739100, -26.61340,   1
   36,'36          ', 230.0000,1,     0.000,     0.000,   1,   1,0.9988700, -23.46140,   1
   37,'37          ', 115.0000,1,     0.000,     0.000,   1,   1,1.0091799, -11.60050,   1
   38,'38          ', 115.0000,1,     0.000,     0.000,   1,   1,1.0105200, -13.03550,   1
   39,'39          ', 345.0000,1,     0.000,     0.000,   1,   1,1.0481499,  -6.20200,   1
   40,'40          ', 115.0000,1,     0.000,     0.000,   1,   1,1.0122000, -13.23560,   1
   41,'41          ', 115.0000,1,     0.000,     0.000,   1,   1,1.0186300, -10.87310,   1
   42,'42          ', 345.0000,1,     0.000,     0.000,   1,   1,1.0384400,  -7.84900,   1
   43,'43          ', 115.0000,1,     0.000,     0.000,   1,   1,0.9939100, -17.55780,   1
   44,'44          ', 115.0000,1,     0.000,     0.000,   1,   1,1.0042300, -18.38900,   1
   45,'45          ', 230.0000,1,     0.000,     0.000,   1,   1,1.0180399, -15.66800,   1
   46,'46          ', 345.0000,1,     0.000,     0.000,   1,   1,1.0289900, -12.41120,   1
   47,'47          ', 115.0000,1,     0.000,     0.000,   1,   1,0.9744200, -24.06310,   1
   48,'48          ', 115.0000,1,     0.000,     0.000,   1,   1,0.9968400, -16.61150,   1
   49,'49          ', 115.0000,1,     0.000,     0.000,   1,   1,1.0197999,  -2.68810,   1
   51,'51          ', 115.0000,1,     0.000,     0.000,   1,   1,1.0077699,  -8.46460,   1
   52,'52          ', 115.0000,1,     0.000,     0.000,   1,   1,0.9853800, -12.65300,   1
   53,'53          ', 115.0000,1,     0.000,     0.000,   1,   1,0.9893700, -18.44580,   1
   54,'54          ', 115.0000,1,     0.000,     0.000,   1,   1,0.9988900, -17.18730,   1
   55,'55          ', 115.0000,1,     0.000,     0.000,   1,   1,1.0071800, -13.28070,   1
   57,'57          ', 115.0000,1,     0.000,     0.000,   1,   1,1.0310301,  -9.90100,   1
   58,'58          ', 115.0000,1,     0.000,     0.000,   1,   1,0.9901400,  -8.26210,   1
   59,'59          ', 115.0000,1,     0.000,     0.000,   1,   1,0.9777100,  -7.66790,   1
   60,'60          ', 230.0000,1,     0.000,     0.000,   1,   1,1.0238301, -11.13300,   1
   61,'61          ', 115.0000,1,     0.000,     0.000,   1,   1,0.9899000,  -5.89630,   1
   62,'62          ', 230.0000,1,     0.000,     0.000,   1,   1,1.0159500,  -3.72180,   1
   63,'63          ', 115.0000,1,     0.000,     0.000,   1,   1,0.9573100, -20.12540,   1
   64,'64          ', 230.0000,1,     0.000,     0.000,   1,   1,0.9474000, -15.50080,   1
   69,'69          ', 115.0000,1,     0.000,     0.000,   1,   1,0.9618200, -26.53250,   1
   70,'70          ', 115.0000,1,     0.000,     0.000,   1,   1,0.9489300, -36.09420,   1
   71,'71          ', 115.0000,1,     0.000,     0.000,   1,   1,0.9771400, -30.79020,   1
   72,'72          ', 115.0000,1,     0.000,     0.000,   1,   1,0.9678200, -28.37700,   1
   73,'73          ', 115.0000,1,     0.000,     0.000,   1,   1,0.9752000, -26.66510,   1
   74,'74          ', 230.0000,1,     0.000,     0.000,   1,   1,0.9938100, -22.89130,   1
   76,'76          ', 115.0000,1,     0.000,     0.000,   1,   1,0.9614400, -27.43730,   1
   77,'77          ', 115.0000,1,     0.000,     0.000,   1,   1,0.9823600, -25.83390,   1
   78,'78          ', 115.0000,1,     0.000,     0.000,   1,   1,0.9887000, -24.94220,   1
   79,'79          ', 115.0000,1,     0.000,     0.000,   1,   1,0.9804600, -25.86540,   1
   80,'80          ', 115.0000,1,     0.000,     0.000,   1,   1,0.9860800, -25.85090,   1
   81,'81          ', 345.0000,1,     0.000,     0.000,   1,   1,1.0313500, -19.70150,   1
   84,'84          ', 115.0000,1,     0.000,     0.000,   1,   1,1.0248500, -18.04520,   1
   85,'85          ', 230.0000,1,     0.000,     0.000,   1,   1,0.9864400, -18.06590,   1
   86,'86          ', 230.0000,1,     0.000,     0.000,   1,   1,0.9897200, -14.48230,   1
   87,'87          ', 230.0000,1,     0.000,     0.000,   1,   1,0.9896000,  -7.84530,   1
   88,'88          ', 230.0000,1,     0.000,     0.000,   1,   1,1.0126400, -21.81180,   1
   89,'89          ', 115.0000,1,     0.000,     0.000,   1,   1,1.0274400, -11.42820,   1
   90,'90          ', 115.0000,1,     0.000,     0.000,   1,   1,1.0208800, -11.61380,   1
   91,'91          ', 115.0000,1,     0.000,     0.000,   1,   1,1.0519500,  -9.73090,   1
   92,'92          ', 115.0000,1,     0.000,     0.000,   1,   1,1.0519600,  -6.62660,   1
   94,'94          ', 115.0000,1,     0.000,     0.000,   1,   1,0.9913200,  -9.54780,   1
   97,'97          ', 115.0000,1,     0.000,     0.000,   1,   1,1.0178000, -13.57390,   1
   98,'98          ', 115.0000,1,     0.000,     0.000,   1,   1,1.0000100, -14.94570,   1
   99,'99          ', 115.0000,1,     0.000,     0.000,   1,   1,0.9892000, -20.72000,   1
  100,'100         ', 115.0000,1,     0.000,     0.000,   1,   1,1.0056700, -14.78060,   1
  102,'102         ', 115.0000,1,     0.000,     0.000,   1,   1,1.0002700, -15.56030,   1
  103,'103         ', 115.0000,1,     0.000,     0.000,   1,   1,1.0280000, -12.47580,   1
  104,'104         ', 115.0000,1,     0.000,     0.000,   1,   1,0.9953900, -17.69710,   1
  105,'105         ', 115.0000,1,     0.000,     0.000,   1,   1,1.0210900, -13.38110,   1
  107,'107         ', 115.0000,1,     0.000,     0.000,   1,   1,1.0067800, -16.51300,   1
  108,'108         ', 115.0000,1,     0.000,     0.000,   1,   1,0.9899700, -20.71100,   1
  109,'109         ', 115.0000,1,     0.000,     0.000,   1,   1,0.9737000, -26.68330,   1
  110,'110         ', 115.0000,1,     0.000,     0.000,   1,   1,0.9721000, -25.26010,   1
  112,'112         ', 115.0000,1,     0.000,     0.000,   1,   1,0.9716600, -29.34820,   1
  113,'113         ', 115.0000,1,     0.000,     0.000,   1,   1,0.9673300, -26.20320,   1
  114,'114         ', 115.0000,1,     0.000,     0.000,   1,   1,0.9738200, -29.25410,   1
  115,'115         ', 115.0000,1,     0.000,     0.000,   2,   2,0.9188600,  11.48240,   1
  116,'116         ', 115.0000,1,     0.000,     0.000,   2,   2,0.9915700,  18.37780,   1
  117,'117         ', 115.0000,1,     0.000,   500.000,   2,   2,0.9386500,  23.77230,   1
  118,'118         ', 115.0000,1,     0.000,     0.000,   2,   2,0.9319600,  24.83910,   1
  119,'119         ', 115.0000,1,     0.000,     0.000,   2,   2,1.0423501,  39.55720,   1
  120,'120         ', 115.0000,1,     0.000,    55.000,   2,   2,1.0074199,  36.95610,   1
  121,'121         ', 115.0000,1,     0.000,     0.000,   2,   2,0.9161600,  15.14990,   1
  122,'122         ', 115.0000,1,     0.000,     0.000,   2,   2,0.9155200,   8.83850,   1
  123,'123         ', 115.0000,1,     0.000,     0.000,   2,   2,0.9322300,   3.93510,   1
  124,'124         ', 115.0000,1,     0.000,     0.000,   2,   2,0.9744800,  15.09670,   1
  125,'125         ', 115.0000,1,     0.000,     0.000,   2,   2,0.9509000,  -6.41640,   1
  126,'126         ', 115.0000,1,     0.000,     0.000,   2,   2,0.9479900,  -1.80800,   1
  127,'127         ', 230.0000,1,     0.000,     0.000,   2,   2,0.9776000,  -7.38710,   1
  128,'128         ', 230.0000,1,     0.000,     0.000,   2,   2,0.9898400,  -5.36300,   1
  129,'129         ', 230.0000,1,     0.000,     0.000,   2,   2,0.9878000,  -4.50940,   1
  130,'130         ', 230.0000,1,     0.000,     0.000,   2,   2,1.0103400,   6.15510,   1
  131,'131         ', 230.0000,1,     0.000,     0.000,   2,   2,0.9805500,   6.48930,   1
  132,'132         ', 230.0000,1,     0.000,     0.000,   2,   2,0.9928800,   4.43060,   1
  133,'133         ', 230.0000,1,     0.000,     0.000,   2,   2,0.9911700,  -7.60460,   1
  134,'134         ', 230.0000,1,     0.000,     0.000,   2,   2,1.0117700,  -6.59110,   1
  135,'135         ', 230.0000,1,     0.000,     0.000,   2,   2,1.0139800,  -6.72940,   1
  136,'136         ', 230.0000,1,     0.000,     0.000,   2,   2,1.0461700,  -1.37410,   1
  137,'137         ', 230.0000,1,     0.000,     0.000,   2,   2,1.0422800,  -7.64500,   1
  138,'138         ', 230.0000,1,     0.000,     0.000,   2,   2,1.0510800, -17.10560,   1
  139,'139         ', 115.0000,1,     0.000,     0.000,   2,   2,1.0101000,  -9.55590,   1
  140,'140         ', 230.0000,1,     0.000,     0.000,   2,   2,1.0396000,  -9.43580,   1
  141,'141         ', 230.0000,1,     0.000,     0.000,   2,   2,1.0509300,  -5.73430,   1
  142,'142         ', 230.0000,1,     0.000,     0.000,   2,   2,1.0131900,  -7.78600,   1
  143,'143         ', 230.0000,1,     0.000,     0.000,   2,   2,1.0433700,  -0.44830,   1
  144,'144         ', 230.0000,1,     0.000,     0.000,   2,   2,1.0158499,  -3.46450,   1
  145,'145         ', 230.0000,1,     0.000,     0.000,   2,   2,1.0075099,  -5.11020,   1
  146,'146         ', 230.0000,1,     0.000,     0.000,   2,   2,1.0523000,  -0.99140,   1
  147,'147         ', 230.0000,1,     0.000,     0.000,   2,   2,1.0528500,   2.96420,   1
  148,'148         ', 115.0000,1,     0.000,     0.000,   2,   2,1.0575800,  -4.29300,   1
  149,'149         ', 230.0000,1,     0.000,     0.000,   2,   2,1.0730799,   0.57730,   1
  150,'150         ', 230.0000,1,     0.000,     0.000,   2,   2,0.9809200,   6.77660,   1
  151,'151         ', 230.0000,1,     0.000,     0.000,   2,   2,0.9938400,   4.83890,   1
  152,'152         ', 230.0000,1,     0.000,     0.000,   2,   2,1.0535500,   5.94830,   1
  153,'153         ', 230.0000,1,     0.000,     0.000,   2,   2,1.0435200,   6.22940,   1
  154,'154         ', 115.0000,1,     0.000,    34.500,   2,   2,0.9650800,  -6.44020,   1
  155,'155         ', 230.0000,1,     0.000,     0.000,   2,   2,1.0141000,   1.75610,   1
  156,'156         ', 115.0000,1,     0.000,     0.000,   2,   2,0.9595100,   0.16770,   1
  157,'157         ', 230.0000,1,     0.000,     0.000,   2,   2,0.9169500,  10.47330,   1
  158,'158         ', 230.0000,1,     0.000,     0.000,   2,   2,0.9318500,   9.98180,   1
  159,'159         ', 230.0000,1,     0.000,     0.000,   2,   2,0.9151300,  14.61350,   1
  160,'160         ', 230.0000,1,     0.000,     0.000,   2,   2,0.9460000,  12.75360,   1
  161,'161         ', 230.0000,1,     0.000,     0.000,   2,   2,1.0346600,   4.36270,   1
  162,'162         ', 230.0000,1,     0.000,     0.000,   2,   2,0.9890400,  13.35490,   1
  163,'163         ', 230.0000,1,     0.000,     0.000,   2,   2,1.0346900,  -2.87980,   1
  164,'164         ', 230.0000,1,     0.000,  -212.000,   2,   2,0.9798400,   4.45960,   1
  165,'165         ', 230.0000,1,     0.000,     0.000,   2,   2,0.9986200,  21.19240,   1
  166,'166         ', 230.0000,1,     0.000,  -103.000,   2,   2,0.9963000,  25.11350,   1
  167,'167         ', 230.0000,1,     0.000,     0.000,   2,   2,0.9558500,  -7.08980,   1
  168,'168         ', 230.0000,1,     0.000,     0.000,   2,   2,0.9898700,  -5.38880,   1
  169,'169         ', 230.0000,1,     0.000,     0.000,   2,   2,0.9717300,  -6.95890,   1
  170,'170         ', 115.0000,1,     0.000,     0.000,   2,   2,0.9122400,   1.03440,   1
  171,'171         ', 115.0000,1,     0.000,     0.000,   2,   2,0.9717500, -12.18050,   1
  172,'172         ', 115.0000,1,     0.000,     0.000,   2,   2,1.0238500, -12.00860,   1
  173,'173         ', 115.0000,1,     0.000,    53.000,   2,   2,0.9827800, -18.17920,   1
  174,'174         ', 115.0000,1,     0.000,     0.000,   2,   2,1.0619700,  -8.43440,   1
  175,'175         ', 115.0000,1,     0.000,     0.000,   2,   2,0.9726900, -12.26740,   1
  176,'176         ', 115.0000,1,     0.000,     0.000,   2,   2,1.0521600,  -0.37590,   1
  177,'177         ', 115.0000,1,     0.000,     0.000,   2,   2,1.0077000,  -4.35550,   1
  178,'178         ', 115.0000,1,     0.000,     0.000,   2,   2,0.9392100, -11.46200,   1
  179,'179         ', 115.0000,1,     0.000,    45.000,   2,   2,0.9691300, -14.23600,   1
  180,'180         ', 115.0000,1,     0.000,     0.000,   2,   2,0.9787200,  -8.02590,   1
  181,'181         ', 230.0000,1,     0.000,     0.000,   2,   2,1.0463400,  -8.16670,   1
  182,'182         ', 230.0000,1,     0.000,     0.000,   2,   2,1.0418800, -10.19030,   1
  183,'183         ', 115.0000,1,     0.000,     0.000,   2,   2,0.9714300,   2.82160,   1
  184,'184         ', 230.0000,1,     0.000,     0.000,   2,   2,1.0345000,  -5.41280,   1
  185,'185         ', 230.0000,1,     0.000,     0.000,   2,   2,1.0521500,  -2.91110,   1
  186,'186         ', 230.0000,1,     0.000,     0.000,   2,   2,1.0646700,  -4.39780,   1
  187,'187         ', 230.0000,1,     0.000,     0.000,   2,   2,1.0645900,  -5.41910,   1
  188,'188         ', 230.0000,1,     0.000,     0.000,   2,   2,1.0487800,  -7.50670,   1
  189,'189         ',  66.0000,1,     0.000,     0.000,   3,   3,0.9971200, -26.68800,   1
  190,'190         ', 345.0000,1,     0.000,  -150.000,   3,   3,1.0551500, -21.47230,   1
  191,'191         ', 230.0000,1,     0.000,     0.000,   3,   3,1.0427700,  11.41340,   1
  192,'192         ', 230.0000,1,     0.000,     0.000,   3,   3,0.9372300, -12.03870,   1
  193,'192         ',  66.0000,1,     0.000,     0.000,   3,   3,0.9889300, -26.93130,   1
  194,'194         ', 345.0000,1,     0.000,     0.000,   3,   3,1.0473100, -20.04390,   1
  195,'195         ', 345.0000,1,     0.000,     0.000,   3,   3,1.0344300, -21.62850,   1
  196,'196         ', 115.0000,1,     0.000,     0.000,   3,   3,0.9691500, -26.17110,   1
  197,'197         ', 115.0000,1,     0.000,     0.000,   3,   3,0.9902900, -24.57270,   1
  198,'198         ', 115.0000,1,     0.000,     0.000,   3,   3,1.0148900, -21.44070,   1
  199,'199         ', 115.0000,1,     0.000,     0.000,   3,   3,0.9526200, -26.90000,   1
  200,'200         ', 115.0000,1,     0.000,     0.000,   3,   3,0.9548800, -26.78900,   1
  201,'201         ',  66.0000,1,     0.000,     0.000,   1,   1,0.9679000, -28.35470,   1
  202,'202         ',  66.0000,1,     0.000,     0.000,   3,   3,0.9902500, -26.18710,   1
  203,'203         ', 115.0000,1,     0.000,     0.000,   3,   3,1.0029800, -23.20660,   1
  204,'204         ',  66.0000,1,     0.000,     0.000,   3,   3,0.9706200, -26.54270,   1
  205,'205         ',  66.0000,1,     0.000,     0.000,   3,   3,0.9828600, -26.90110,   1
  206,'206         ',  66.0000,1,     0.000,     0.000,   3,   3,0.9985600, -28.16060,   1
  207,'207         ',  66.0000,1,     0.000,     0.000,   1,   1,1.0132600, -28.15420,   1
  208,'208         ',  66.0000,1,     0.000,     0.000,   3,   3,0.9922600, -27.10940,   1
  209,'209         ',  66.0000,1,     0.000,     0.000,   3,   3,0.9995800, -26.50470,   1
  210,'210         ', 115.0000,1,     0.000,     0.000,   3,   3,0.9785800, -25.07380,   1
  211,'211         ', 115.0000,1,     0.000,     0.000,   3,   3,1.0009900, -24.16870,   1
  212,'212         ', 138.0000,1,     0.000,     0.000,   3,   3,1.0124201, -23.35730,   1
  213,'213         ',  16.5000,1,     0.000,     0.000,   3,   3,1.0099500, -12.52510,   1
  214,'214         ', 138.0000,1,     0.000,     0.000,   3,   3,0.9917500, -18.38450,   1
  215,'215         ', 138.0000,1,     0.000,     0.000,   3,   3,0.9863700, -21.08500,   1
  216,'216         ', 138.0000,1,     0.000,     0.000,   3,   3,0.9748300, -23.38110,   1
  217,'217         ', 138.0000,1,     0.000,     0.000,   3,   3,1.0211101, -23.04800,   1
  218,'218         ', 138.0000,1,     0.000,     0.000,   3,   3,1.0070900, -23.47730,   1
  219,'219         ', 345.0000,1,     0.000,     0.000,   3,   3,1.0548100, -21.99620,   1
  220,'220         ', 138.0000,1,     0.000,     0.000,   3,   3,1.0079600, -22.57740,   1
  221,'221         ', 138.0000,1,     0.000,     0.000,   3,   3,0.9998100, -23.34140,   1
...
0 / END OF BUS DATA, BEGIN LOAD DATA
    1,'1 ',1,   1,   1,    90.000,    49.000,     0.000,     0.000,     0.000,     0.000,   1
    2,'1 ',1,   1,   1,    56.000,    15.000,     0.000,     0.000,     0.000,     0.000,   1
    3,'1 ',1,   1,   1,    20.000,     0.000,     0.000,     0.000,     0.000,     0.000,   1
    5,'1 ',1,   1,   1,   353.000,   130.000,     0.000,     0.000,     0.000,     0.000,   1
    6,'1 ',1,   1,   1,   120.000,    41.000,     0.000,     0.000,     0.000,     0.000,   1
    8,'1 ',1,   1,   1,    58.000,    14.000,     0.000,     0.000,     0.000,     0.000,   1
    9,'1 ',1,   1,   1,    96.000,    43.000,     0.000,     0.000,     0.000,     0.000,   1
   10,'1 ',1,   1,   1,   148.000,    33.000,     0.000,     0.000,     0.000,     0.000,   1
   11,'1 ',1,   1,   1,    83.000,    21.000,     0.000,     0.000,     0.000,     0.000,   1
   13,'1 ',1,   1,   1,    58.000,    10.000,     0.000,     0.000,     0.000,     0.000,   1
   14,'1 ',1,   1,   1,   160.000,    60.000,     0.000,     0.000,     0.000,     0.000,   1
   15,'1 ',1,   1,   1,   126.700,    23.000,     0.000,     0.000,     0.000,     0.000,   1
   17,'1 ',1,   1,   1,   561.000,   220.000,     0.000,     0.000,     0.000,     0.000,   1
   20,'1 ',1,   1,   1,   595.000,   120.000,     0.000,     0.000,     0.000,     0.000,   1
   21,'1 ',1,   1,   1,    77.000,     1.000,     0.000,     0.000,     0.000,     0.000,   1
   22,'1 ',1,   1,   1,    81.000,    23.000,     0.000,     0.000,     0.000,     0.000,   1
   23,'1 ',1,   1,   1,    21.000,     7.000,     0.000,     0.000,     0.000,     0.000,   1
   25,'1 ',1,   1,   1,    45.000,    12.000,     0.000,     0.000,     0.000,     0.000,   1
   26,'1 ',1,   1,   1,    28.000,     9.000,     0.000,     0.000,     0.000,     0.000,   1
   27,'1 ',1,   1,   1,    69.000,    13.000,     0.000,     0.000,     0.000,     0.000,   1
   33,'1 ',1,   1,   1,    55.000,     6.000,     0.000,     0.000,     0.000,     0.000,   1
   37,'1 ',1,   1,   1,    85.000,    32.000,     0.000,     0.000,     0.000,     0.000,   1
   38,'1 ',1,   1,   1,   155.000,    18.000,     0.000,     0.000,     0.000,     0.000,   1
   40,'1 ',1,   1,   1,    46.000,   -21.000,     0.000,     0.000,     0.000,     0.000,   1
   41,'1 ',1,   1,   1,    86.000,     0.000,     0.000,     0.000,     0.000,     0.000,   1
   43,'1 ',1,   1,   1,    39.000,     9.000,     0.000,     0.000,     0.000,     0.000,   1
   44,'1 ',1,   1,   1,   195.000,    29.000,     0.000,     0.000,     0.000,     0.000,   1
   47,'1 ',1,   1,   1,    58.000,    11.800,     0.000,     0.000,     0.000,     0.000,   1
   48,'1 ',1,   1,   1,    41.000,    19.000,     0.000,     0.000,     0.000,     0.000,   1
   49,'1 ',1,   1,   1,    92.000,    26.000,     0.000,     0.000,     0.000,     0.000,   1
   51,'1 ',1,   1,   1,    -5.000,     5.000,     0.000,     0.000,     0.000,     0.000,   1
   52,'1 ',1,   1,   1,    61.000,    28.000,     0.000,     0.000,     0.000,     0.000,   1
   53,'1 ',1,   1,   1,    69.000,     3.000,     0.000,     0.000,     0.000,     0.000,   1
   54,'1 ',1,   1,   1,    10.000,     1.000,     0.000,     0.000,     0.000,     0.000,   1
   55,'1 ',1,   1,   1,    22.000,    10.000,     0.000,     0.000,     0.000,     0.000,   1
   57,'1 ',1,   1,   1,    98.000,    20.000,     0.000,     0.000,     0.000,     0.000,   1
   58,'1 ',1,   1,   1,    14.000,     1.000,     0.000,     0.000,     0.000,     0.000,   1
   59,'1 ',1,   1,   1,   218.000,   106.000,     0.000,     0.000,     0.000,     0.000,   1
   61,'1 ',1,   1,   1,   227.000,   110.000,     0.000,     0.000,     0.000,     0.000,   1
   63,'1 ',1,   1,   1,    70.000,    30.000,     0.000,     0.000,     0.000,     0.000,   1
   70,'1 ',1,   1,   1,    56.000,    20.000,     0.000,     0.000,     0.000,     0.000,   1
   71,'1 ',1,   1,   1,   116.000,    38.000,     0.000,     0.000,     0.000,     0.000,   1
   72,'1 ',1,   1,   1,    57.000,    19.000,     0.000,     0.000,     0.000,     0.000,   1
   73,'1 ',1,   1,   1,   224.000,    71.000,     0.000,     0.000,     0.000,     0.000,   1
   76,'1 ',1,   1,   1,   208.000,   107.000,     0.000,     0.000,     0.000,     0.000,   1
   77,'1 ',1,   1,   1,    74.000,    28.000,     0.000,     0.000,     0.000,     0.000,   1
   79,'1 ',1,   1,   1,    48.000,    14.000,     0.000,     0.000,     0.000,     0.000,   1
   80,'1 ',1,   1,   1,    28.000,     7.000,     0.000,     0.000,     0.000,     0.000,   1
   84,'1 ',1,   1,   1,    37.000,    13.000,     0.000,     0.000,     0.000,     0.000,   1
   89,'1 ',1,   1,   1,    44.200,     0.000,     0.000,     0.000,     0.000,     0.000,   1
   90,'1 ',1,   1,   1,    66.000,     0.000,     0.000,     0.000,     0.000,     0.000,   1
   91,'1 ',1,   1,   1,    17.400,     0.000,     0.000,     0.000,     0.000,     0.000,   1
   92,'1 ',1,   1,   1,    15.800,     0.000,     0.000,     0.000,     0.000,     0.000,   1
   94,'1 ',1,   1,   1,    60.300,     0.000,     0.000,     0.000,     0.000,     0.000,   1
   97,'1 ',1,   1,   1,    39.900,     0.000,     0.000,     0.000,     0.000,     0.000,   1
   98,'1 ',1,   1,   1,    66.700,     0.000,     0.000,     0.000,     0.000,     0.000,   1
   99,'1 ',1,   1,   1,    83.500,     0.000,     0.000,     0.000,     0.000,     0.000,   1
  102,'1 ',1,   1,   1,    77.800,     0.000,     0.000,     0.000,     0.000,     0.000,   1
  103,'1 ',1,   1,   1,    32.000,     0.000,     0.000,     0.000,     0.000,     0.000,   1
  104,'1 ',1,   1,   1,     8.600,     0.000,     0.000,     0.000,     0.000,     0.000,   1
  105,'1 ',1,   1,   1,    49.600,     0.000,     0.000,     0.000,     0.000,     0.000,   1
  107,'1 ',1,   1,   1,     4.600,     0.000,     0.000,     0.000,     0.000,     0.000,   1
  108,'1 ',1,   1,   1,   112.100,     0.000,     0.000,     0.000,     0.000,     0.000,   1
  109,'1 ',1,   1,   1,    30.700,     0.000,     0.000,     0.000,     0.000,     0.000,   1
  110,'1 ',1,   1,   1,    63.000,     0.000,     0.000,     0.000,     0.000,     0.000,   1
  112,'1 ',1,   1,   1,    19.600,     0.000,     0.000,     0.000,     0.000,     0.000,   1
  113,'1 ',1,   1,   1,    26.200,     0.000,     0.000,     0.000,     0.000,     0.000,   1
  114,'1 ',1,   1,   1,    18.200,     0.000,     0.000,     0.000,     0.000,     0.000,   1
  118,'1 ',1,   2,   2,    14.100,   650.000,     0.000,     0.000,     0.000,     0.000,   1
  119,'1 ',1,   2,   2,   100.300,    34.400,     0.000,     0.000,     0.000,     0.000,   1
  120,'1 ',1,   2,   2,  -100.000,    40.200,     0.000,     0.000,     0.000,     0.000,   1
  121,'1 ',1,   2,   2,   535.000,    55.000,     0.000,     0.000,     0.000,     0.000,   1
  122,'1 ',1,   2,   2,   229.100,    11.800,     0.000,     0.000,     0.000,     0.000,   1
  123,'1 ',1,   2,   2,    78.000,     1.400,     0.000,     0.000,     0.000,     0.000,   1
  124,'1 ',1,   2,   2,   276.400,    59.300,     0.000,     0.000,     0.000,     0.000,   1
  125,'1 ',1,   2,   2,   514.800,    82.700,     0.000,     0.000,     0.000,     0.000,   1
  126,'1 ',1,   2,   2,    57.900,     5.100,     0.000,     0.000,     0.000,     0.000,   1
  127,'1 ',1,   2,   2,   380.800,    37.000,     0.000,     0.000,     0.000,     0.000,   1
  135,'1 ',1,   2,   2,   169.200,    41.600,     0.000,     0.000,     0.000,     0.000,   1
  136,'1 ',1,   2,   2,    55.200,    18.200,     0.000,     0.000,     0.000,     0.000,   1
  137,'1 ',1,   2,   2,   273.600,    99.800,     0.000,     0.000,     0.000,     0.000,   1
  138,'1 ',1,   2,   2,   826.700,   135.200,     0.000,     0.000,     0.000,     0.000,   1
  139,'1 ',1,   2,   2,   595.000,    83.300,     0.000,     0.000,     0.000,     0.000,   1
  140,'1 ',1,   2,   2,   387.700,   114.700,     0.000,     0.000,     0.000,     0.000,   1
  141,'1 ',1,   2,   2,   145.000,    58.000,     0.000,     0.000,     0.000,     0.000,   1
  142,'1 ',1,   2,   2,    56.500,    24.500,     0.000,     0.000,     0.000,     0.000,   1
  143,'1 ',1,   2,   2,    89.500,    35.500,     0.000,     0.000,     0.000,     0.000,   1
  145,'1 ',1,   2,   2,    24.000,    14.000,     0.000,     0.000,     0.000,     0.000,   1
  148,'1 ',1,   2,   2,    63.000,    25.000,     0.000,     0.000,     0.000,     0.000,   1
  152,'1 ',1,   2,   2,    17.000,     9.000,     0.000,     0.000,     0.000,     0.000,   1
  154,'1 ',1,   2,   2,    70.000,     5.000,     0.000,     0.000,     0.000,     0.000,   1
  155,'1 ',1,   2,   2,   200.000,    50.000,     0.000,     0.000,     0.000,     0.000,   1
  156,'1 ',1,   2,   2,    75.000,    50.000,     0.000,     0.000,     0.000,     0.000,   1
  157,'1 ',1,   2,   2,   123.500,   -24.300,     0.000,     0.000,     0.000,     0.000,   1
  159,'1 ',1,   2,   2,    33.000,    16.500,     0.000,     0.000,     0.000,     0.000,   1
  161,'1 ',1,   2,   2,    35.000,    15.000,     0.000,     0.000,     0.000,     0.000,   1
  162,'1 ',1,   2,   2,    85.000,    24.000,     0.000,     0.000,     0.000,     0.000,   1
  163,'1 ',1,   2,   2,     0.000,     0.400,     0.000,     0.000,     0.000,     0.000,   1
  167,'1 ',1,   2,   2,   299.900,    95.700,     0.000,     0.000,     0.000,     0.000,   1
  170,'1 ',1,   2,   2,   481.800,   100.000,     0.000,     0.000,     0.000,     0.000,   1
  171,'1 ',1,   2,   2,   763.600,   291.100,     0.000,     0.000,     0.000,     0.000,   1
  172,'1 ',1,   2,   2,    26.500,     0.000,     0.000,     0.000,     0.000,     0.000,   1
  173,'1 ',1,   2,   2,   163.500,    43.000,     0.000,     0.000,     0.000,     0.000,   1
  175,'1 ',1,   2,   2,   176.000,    83.000,     0.000,     0.000,     0.000,     0.000,   1
  176,'1 ',1,   2,   2,     5.000,     4.000,     0.000,     0.000,     0.000,     0.000,   1
  177,'1 ',1,   2,   2,    28.000,    12.000,     0.000,     0.000,     0.000,     0.000,   1
  178,'1 ',1,   2,   2,   427.400,   173.600,     0.000,     0.000,     0.000,     0.000,   1
  179,'1 ',1,   2,   2,    74.000,    29.000,     0.000,     0.000,     0.000,     0.000,   1
  180,'1 ',1,   2,   2,    69.500,    49.300,     0.000,     0.000,     0.000,     0.000,   1
  181,'1 ',1,   2,   2,    73.400,     0.000,     0.000,     0.000,     0.000,     0.000,   1
  182,'1 ',1,   2,   2,   240.700,    89.000,     0.000,     0.000,     0.000,     0.000,   1
  183,'1 ',1,   2,   2,    40.000,     4.000,     0.000,     0.000,     0.000,     0.000,   1
  184,'1 ',1,   2,   2,   136.800,    16.600,     0.000,     0.000,     0.000,     0.000,   1
  186,'1 ',1,   2,   2,    59.800,    24.300,     0.000,     0.000,     0.000,     0.000,   1
  187,'1 ',1,   2,   2,    59.800,    24.300,     0.000,     0.000,     0.000,     0.000,   1
  188,'1 ',1,   2,   2,   182.600,    43.600,     0.000,     0.000,     0.000,     0.000,   1
  189,'1 ',1,   3,   3,     7.000,     2.000,     0.000,     0.000,     0.000,     0.000,   1
  191,'1 ',1,   3,   3,   489.000,    53.000,     0.000,     0.000,     0.000,     0.000,   1
  192,'1 ',1,   3,   3,   800.000,    72.000,     0.000,     0.000,     0.000,     0.000,   1
  196,'1 ',1,   3,   3,    10.000,     3.000,     0.000,     0.000,     0.000,     0.000,   1
  197,'1 ',1,   3,   3,    43.000,    14.000,     0.000,     0.000,     0.000,     0.000,   1
  198,'1 ',1,   3,   3,    64.000,    21.000,     0.000,     0.000,     0.000,     0.000,   1
  199,'1 ',1,   3,   3,    35.000,    12.000,     0.000,     0.000,     0.000,     0.000,   1
  200,'1 ',1,   3,   3,    27.000,    12.000,     0.000,     0.000,     0.000,     0.000,   1
  201,'1 ',1,   1,   1,    41.000,    14.000,     0.000,     0.000,     0.000,     0.000,   1
  202,'1 ',1,   3,   3,    38.000,    13.000,     0.000,     0.000,     0.000,     0.000,   1
  203,'1 ',1,   3,   3,    42.000,    14.000,     0.000,     0.000,     0.000,     0.000,   1
  204,'1 ',1,   3,   3,    72.000,    24.000,     0.000,     0.000,     0.000,     0.000,   1
  205,'1 ',1,   3,   3,     0.000,    -5.000,     0.000,     0.000,     0.000,     0.000,   1
  206,'1 ',1,   3,   3,    12.000,     2.000,     0.000,     0.000,     0.000,     0.000,   1
  207,'1 ',1,   1,   1,   -21.000,   -14.200,     0.000,     0.000,     0.000,     0.000,   1
  208,'1 ',1,   3,   3,     7.000,     2.000,     0.000,     0.000,     0.000,     0.000,   1
  209,'1 ',1,   3,   3,    38.000,    13.000,     0.000,     0.000,     0.000,     0.000,   1
  211,'1 ',1,   3,   3,    96.000,     7.000,     0.000,     0.000,     0.000,     0.000,   1
  214,'1 ',1,   3,   3,    22.000,    16.000,     0.000,     0.000,     0.000,     0.000,   1
  215,'1 ',1,   3,   3,    47.000,    26.000,     0.000,     0.000,     0.000,     0.000,   1
  216,'1 ',1,   3,   3,   176.000,   105.000,     0.000,     0.000,     0.000,     0.000,   1
  217,'1 ',1,   3,   3,   100.000,    75.000,     0.000,     0.000,     0.000,     0.000,   1
  218,'1 ',1,   3,   3,   131.000,    96.000,     0.000,     0.000,     0.000,     0.000,   1
  220,'1 ',1,   3,   3,   285.000,   100.000,     0.000,     0.000,     0.000,     0.000,   1
  221,'1 ',1,   3,   3,   171.000,    70.000,     0.000,     0.000,     0.000,     0.000,   1
  222,'1 ',1,   3,   3,   328.000,   188.000,     0.000,     0.000,     0.000,     0.000,   1
  223,'1 ',1,   3,   3,   428.000,   232.000,     0.000,     0.000,     0.000,     0.000,   1
  224,'1 ',1,   3,   3,   173.000,    99.000,     0.000,     0.000,     0.000,     0.000,   1
  225,'1 ',1,   3,   3,   410.000,    40.000,     0.000,     0.000,     0.000,     0.000,   1
  227,'1 ',1,   3,   3,   538.000,   369.000,     0.000,     0.000,     0.000,     0.000,   1
  228,'1 ',1,   3,   3,   223.000,   148.000,     0.000,     0.000,     0.000,     0.000,   1
  229,'1 ',1,   3,   3,    96.000,    46.000,     0.000,     0.000,     0.000,     0.000,   1
  231,'1 ',1,   3,   3,   159.000,   107.000,     0.000,     0.000,     0.000,     0.000,   1
  232,'1 ',1,   3,   3,   448.000,   143.000,     0.000,     0.000,     0.000,     0.000,   1
  233,'1 ',1,   3,   3,   404.000,   212.000,     0.000,     0.000,     0.000,     0.000,   1
  234,'1 ',1,   3,   3,   572.000,   244.000,     0.000,     0.000,     0.000,     0.000,   1
  235,'1 ',1,   3,   3,   269.000,   157.000,     0.000,     0.000,     0.000,     0.000,   1
  238,'1 ',1,   3,   3,   255.000,   149.000,     0.000,     0.000,     0.000,     0.000,   1
  243,'1 ',1,   3,   3,     8.000,     3.000,     0.000,     0.000,     0.000,     0.000,   1
  245,'1 ',1,   3,   3,    61.000,    30.000,     0.000,     0.000,     0.000,     0.000,   1
  246,'1 ',1,   3,   3,    77.000,    33.000,     0.000,     0.000,     0.000,     0.000,   1
  247,'1 ',1,   3,   3,    61.000,    30.000,     0.000,     0.000,     0.000,     0.000,   1
  248,'1 ',1,   3,   3,    29.000,    14.000,     0.000,     0.000,     0.000,     0.000,   1
  249,'1 ',1,   3,   3,    29.000,    14.000,     0.000,     0.000,     0.000,     0.000,   1
  250,'1 ',1,   3,   3,   -23.000,   -17.000,     0.000,     0.000,     0.000,     0.000,   1
  281,'1 ',1,   3,   3,   -33.100,   -29.400,     0.000,     0.000,     0.000,     0.000,   1
  319,'1 ',1,   1,   1,   115.800,   -24.000,     0.000,     0.000,     0.000,     0.000,   1
  320,'1 ',1,   1,   1,     2.400,   -12.600,     0.000,     0.000,     0.000,     0.000,   1
  322,'1 ',1,   1,   1,     2.400,    -3.900,     0.000,     0.000,     0.000,     0.000,   1
  323,'1 ',1,   1,   1,   -14.900,    26.500,     0.000,     0.000,     0.000,     0.000,   1
  324,'1 ',1,   1,   1,    24.700,    -1.200,     0.000,     0.000,     0.000,     0.000,   1
  526,'1 ',1,   1,   1,   145.300,   -34.900,     0.000,     0.000,     0.000,     0.000,   1
  528,'1 ',1,   1,   1,    28.100,   -20.500,     0.000,     0.000,     0.000,     0.000,   1
  531,'1 ',1,   1,   1,    14.000,     2.500,     0.000,     0.000,     0.000,     0.000,   1
  552,'1 ',1,   1,   1,   -11.100,    -1.400,     0.000,     0.000,     0.000,     0.000,   1
  562,'1 ',1,   1,   1,    50.500,    17.400,     0.000,     0.000,     0.000,     0.000,   1
  609,'1 ',1,   1,   1,    29.600,     0.600,     0.000,     0.000,     0.000,     0.000,   1
  664,'1 ',1,   3,   3,  -113.700,    76.700,     0.000,     0.000,     0.000,     0.000,   1
 1190,'1 ',1,   1,   1,   100.310,    29.170,     0.000,     0.000,     0.000,     0.000,   1
 1200,'1 ',1,   1,   1,  -100.000,    34.170,     0.000,     0.000,     0.000,     0.000,   1
 9003,'1 ',1,   1,   9,     2.710,     0.940,     0.000,     0.000,     0.000,     0.000,   1
 9004,'1 ',1,   1,   9,     0.860,     0.280,     0.000,     0.000,     0.000,     0.000,   1
 9021,'1 ',1,   1,   9,     4.750,     1.560,     0.000,     0.000,     0.000,     0.000,   1
 9022,'1 ',1,   1,   9,     1.530,     0.530,     0.000,     0.000,     0.000,     0.000,   1
 9024,'1 ',1,   1,   9,     1.350,     0.470,     0.000,     0.000,     0.000,     0.000,   1
 9025,'1 ',1,   1,   9,     0.450,     0.160,     0.000,     0.000,     0.000,     0.000,   1
 9026,'1 ',1,   1,   9,     0.450,     0.160,     0.000,     0.000,     0.000,     0.000,   1
 9031,'1 ',1,   1,   9,     1.840,     0.640,     0.000,     0.000,     0.000,     0.000,   1
 9032,'1 ',1,   1,   9,     1.390,     0.480,     0.000,     0.000,     0.000,     0.000,   1
 9033,'1 ',1,   1,   9,     1.890,     0.650,     0.000,     0.000,     0.000,     0.000,   1
 9034,'1 ',1,   1,   9,     1.550,     0.540,     0.000,     0.000,     0.000,     0.000,   1
 9035,'1 ',1,   1,   9,     1.660,     0.580,     0.000,     0.000,     0.000,     0.000,   1
 9036,'1 ',1,   1,   9,     3.030,     1.000,     0.000,     0.000,     0.000,     0.000,   1
 9037,'1 ',1,   1,   9,     1.860,     0.640,     0.000,     0.000,     0.000,     0.000,   1
 9038,'1 ',1,   1,   9,     2.580,     0.890,     0.000,     0.000,     0.000,     0.000,   1
 9041,'1 ',1,   1,   9,     1.010,     0.350,     0.000,     0.000,     0.000,     0.000,   1
 9042,'1 ',1,   1,   9,     0.810,     0.280,     0.000,     0.000,     0.000,     0.000,   1
 9043,'1 ',1,   1,   9,     1.600,     0.520,     0.000,     0.000,     0.000,     0.000,   1
 9052,'1 ',1,   1,   9,    30.000,    23.000,     0.000,     0.000,     0.000,     0.000,   1
 9071,'1 ',1,   1,   9,     1.020,     0.350,     0.000,     0.000,     0.000,     0.000,   1
 9072,'1 ',1,   1,   9,     1.020,     0.350,     0.000,     0.000,     0.000,     0.000,   1
 9121,'1 ',1,   1,   9,     3.800,     1.250,     0.000,     0.000,     0.000,     0.000,   1
 9533,'1 ',1,   1,   9,     1.190,     0.410,     0.000,     0.000,     0.000,     0.000,   1
0 / END OF LOAD DATA, BEGIN GENERATOR DATA
10000,'1 ',    -5.000,    10.000,    10.000,   -10.000,1.01530,    0,    25.000,   0.00140,   0.12000,   0.00000,   0.00000,1.00000,1,  100.0,  9999.000, -9999.000,   1,1.0000,   0,1.0000,   0,1.0000,   0,1.0000
10001,'1 ',    -5.000,    20.000,    20.000,   -20.000,1.02050,    0,    25.000,   0.00140,   0.12000,   0.00000,   0.00000,1.00000,1,  100.0,  9999.000, -9999.000,   1,1.0000,   0,1.0000,   0,1.0000,   0,1.0000
10002,'1 ',   -10.000,    20.000,    20.000,   -20.000,1.00100,    0,    27.000,   0.00140,   0.12000,   0.00000,   0.00000,1.00000,1,  100.0,  9999.000, -9999.000,   1,1.0000,   0,1.0000,   0,1.0000,   0,1.0000
10003,'1 ',     0.000,    25.000,    25.000,   -25.000,0.95830,    0,    30.000,   0.00140,   0.12000,   0.00000,   0.00000,1.00000,1,  100.0,  9999.000, -9999.000,   1,1.0000,   0,1.0000,   0,1.0000,   0,1.0000
10004,'1 ',     0.000,    35.000,    35.000,    12.000,0.96320,    0,    42.000,   0.00140,   0.12000,   0.00000,   0.00000,1.00000,1,  100.0,  9999.000, -9999.000,   1,1.0000,   0,1.0000,   0,1.0000,   0,1.0000
10005,'1 ',   375.000,   136.510,   240.000,  -240.000,1.02500,    0,   835.000,   0.00190,   0.33900,   0.00000,   0.00000,1.00000,1,  100.0,  9999.000, -9999.000,   1,1.0000,   0,1.0000,   0,1.0000,   0,1.0000
10006,'1 ',   155.000,    49.000,    96.000,   -11.000,1.05200,    0,   270.000,   0.00160,   0.18500,   0.00000,   0.00000,1.00000,1,  100.0,  9999.000, -9999.000,   1,1.0000,   0,1.0000,   0,1.0000,   0,1.0000
10007,'1 ',   290.000,    36.450,   153.000,  -153.000,1.05200,    0,   410.000,   0.00190,   0.22840,   0.00000,   0.00000,1.00000,1,  100.0,  9999.000, -9999.000,   1,1.0000,   0,1.0000,   0,1.0000,   0,1.0000
10008,'1 ',    68.000,    -9.990,    56.000,   -30.000,1.00000,    0,   125.000,   0.00400,   0.13400,   0.00000,   0.00000,1.00000,1,  100.0,  9999.000, -9999.000,   1,1.0000,   0,1.0000,   0,1.0000,   0,1.0000
10009,'1 ',   117.000,    24.330,    77.000,   -24.000,0.99000,    0,   270.000,   0.00160,   0.18500,   0.00000,   0.00000,1.00000,1,  100.0,  9999.000, -9999.000,   1,1.0000,   0,1.0000,   0,1.0000,   0,1.0000
10010,'1 ',  1930.000,  1096.060,  1500.000,  -500.000,1.04350,    0,  2845.000,   0.00100,   0.19300,   0.00000,   0.00000,1.00000,1,  100.0,  9999.000, -9999.000,   1,1.0000,   0,1.0000,   0,1.0000,   0,1.0000
10011,'1 ',   240.000,   120.000,   120.000,   -60.000,1.02330,    0,   410.000,   0.00190,   0.22840,   0.00000,   0.00000,1.00000,1,  100.0,  9999.000, -9999.000,   1,1.0000,   0,1.0000,   0,1.0000,   0,1.0000
10012,'1 ',     0.000,   200.000,   200.000,   -25.000,1.01030,    0,   240.000,   0.00140,   0.12000,   0.00000,   0.00000,1.00000,1,  100.0,  9999.000, -9999.000,   1,1.0000,   0,1.0000,   0,1.0000,   0,1.0000
10013,'1 ',  -925.030,   350.000,   350.000,  -125.000,1.05500,    0,  1187.000,   0.00100,   0.19300,   0.00000,   0.00000,1.00000,1,  100.0,  9999.000, -9999.000,   1,1.0000,   0,1.0000,   0,1.0000,   0,1.0000
10014,'1 ',   281.000,    69.960,    75.000,   -50.000,1.05100,    0,   410.000,   0.00190,   0.22840,   0.00000,   0.00000,1.00000,1,  100.0,  9999.000, -9999.000,   1,1.0000,   0,1.0000,   0,1.0000,   0,1.0000
10015,'1 ',   696.000,   126.940,   300.000,  -100.000,1.04350,    0,   911.000,   0.00100,   0.19300,   0.00000,   0.00000,1.00000,1,  100.0,  9999.000, -9999.000,   1,1.0000,   0,1.0000,   0,1.0000,   0,1.0000
10016,'1 ',    84.000,    35.000,    35.000,   -15.000,1.05280,    0,   125.000,   0.00400,   0.13400,   0.00000,   0.00000,1.00000,1,  100.0,  9999.000, -9999.000,   1,1.0000,   0,1.0000,   0,1.0000,   0,1.0000
10017,'1 ',   217.000,   -47.230,   100.000,   -50.000,1.05280,    0,   410.000,   0.00190,   0.22840,   0.00000,   0.00000,1.00000,1,  100.0,  9999.000, -9999.000,   1,1.0000,   0,1.0000,   0,1.0000,   0,1.0000
10018,'1 ',   103.000,    50.000,    50.000,   -25.000,1.07350,    0,   270.000,   0.00160,   0.18500,   0.00000,   0.00000,1.00000,1,  100.0,  9999.000, -9999.000,   1,1.0000,   0,1.0000,   0,1.0000,   0,1.0000
10019,'1 ',   372.000,   -48.320,   175.000,   -50.000,1.05350,    0,   835.000,   0.00190,   0.33900,   0.00000,   0.00000,1.00000,1,  100.0,  9999.000, -9999.000,   1,1.0000,   0,1.0000,   0,1.0000,   0,1.0000
10020,'1 ',   216.000,   -18.350,    90.000,   -50.000,1.04350,    0,   410.000,   0.00190,   0.22840,   0.00000,   0.00000,1.00000,1,  100.0,  9999.000, -9999.000,   1,1.0000,   0,1.0000,   0,1.0000,   0,1.0000
10021,'1 ',     0.000,    15.000,    15.000,   -10.000,0.96300,    0,    25.000,   0.00140,   0.12000,   0.00000,   0.00000,1.00000,1,  100.0,  9999.000, -9999.000,   1,1.0000,   0,1.0000,   0,1.0000,   0,1.0000
10022,'1 ',   205.000,   -40.000,    90.000,   -40.000,1.00000,    0,   410.000,   0.00190,   0.22840,   0.00000,   0.00000,1.00000,1,  100.0,  9999.000, -9999.000,   1,1.0000,   0,1.0000,   0,1.0000,   0,1.0000
10023,'1 ',     0.000,   150.000,   150.000,   -50.000,0.98290,    0,   180.000,   0.00140,   0.12000,   0.00000,   0.00000,1.00000,1,  100.0,  9999.000, -9999.000,   1,1.0000,   0,1.0000,   0,1.0000,   0,1.0000
10024,'1 ',   228.000,    40.160,    90.000,   -45.000,1.05220,    0,   410.000,   0.00190,   0.22840,   0.00000,   0.00000,1.00000,1,  100.0,  9999.000, -9999.000,   1,1.0000,   0,1.0000,   0,1.0000,   0,1.0000
10025,'1 ',    84.000,    35.000,    35.000,   -15.000,1.00770,    0,   270.000,   0.00160,   0.18500,   0.00000,   0.00000,1.00000,1,  100.0,  9999.000, -9999.000,   1,1.0000,   0,1.0000,   0,1.0000,   0,1.0000
10026,'1 ',   200.000,    50.150,    80.000,   -50.000,1.05220,    0,   410.000,   0.00190,   0.22840,   0.00000,   0.00000,1.00000,1,  100.0,  9999.000, -9999.000,   1,1.0000,   0,1.0000,   0,1.0000,   0,1.0000
10027,'1 ',  1200.000,   319.550,   400.000,  -100.000,1.06500,    0,  1491.000,   0.00100,   0.19300,   0.00000,   0.00000,1.00000,1,  100.0,  9999.000, -9999.000,   1,1.0000,   0,1.0000,   0,1.0000,   0,1.0000
10028,'1 ',  1200.000,   395.850,   400.000,  -100.000,1.06500,    0,  1517.000,   0.00100,   0.19300,   0.00000,   0.00000,1.00000,1,  100.0,  9999.000, -9999.000,   1,1.0000,   0,1.0000,   0,1.0000,   0,1.0000
10029,'1 ',   475.000,   -44.880,   300.000,  -300.000,1.05510,    0,   835.000,   0.00190,   0.33900,   0.00000,   0.00000,1.00000,1,  100.0,  9999.000, -9999.000,   1,1.0000,   0,1.0000,   0,1.0000,   0,1.0000
10030,'1 ',  1973.000,   694.520,  1000.000, -1000.000,1.04350,    0,  2510.000,   0.00100,   0.19300,   0.00000,   0.00000,1.00000,1,  100.0,  9999.000, -9999.000,   1,1.0000,   0,1.0000,   0,1.0000,   0,1.0000
10031,'1 ',   424.000,   103.050,   260.000,  -260.000,1.01500,    0,   835.000,   0.00190,   0.33900,   0.00000,   0.00000,1.00000,1,  100.0,  9999.000, -9999.000,   1,1.0000,   0,1.0000,   0,1.0000,   0,1.0000
10032,'1 ',   272.000,    44.310,   150.000,  -150.000,1.01000,    0,   512.000,   0.00400,   0.20000,   0.00000,   0.00000,1.00000,1,  100.0,  9999.000, -9999.000,   1,1.0000,   0,1.0000,   0,1.0000,   0,1.0000
10033,'1 ',   100.000,    40.960,    60.000,   -60.000,1.00800,    0,   270.000,   0.00160,   0.18500,   0.00000,   0.00000,1.00000,1,  100.0,  9999.000, -9999.000,   1,1.0000,   0,1.0000,   0,1.0000,   0,1.0000
10034,'1 ',   450.000,   169.120,   320.000,  -320.000,1.00000,    0,   835.000,   0.00190,   0.33900,   0.00000,   0.00000,1.00000,1,  100.0,  9999.000, -9999.000,   1,1.0000,   0,1.0000,   0,1.0000,   0,1.0000
10035,'1 ',   250.000,   144.230,   300.000,  -300.000,1.05000,    0,   410.000,   0.00190,   0.22840,   0.00000,   0.00000,1.00000,1,  100.0,  9999.000, -9999.000,   1,1.0000,   0,1.0000,   0,1.0000,   0,1.0000
10036,'1 ',   303.000,   254.360,   300.000,  -300.000,1.00000,    0,   512.000,   0.00400,   0.20000,   0.00000,   0.00000,1.00000,1,  100.0,  9999.000, -9999.000,   1,1.0000,   0,1.0000,   0,1.0000,   0,1.0000
10037,'1 ',   345.000,    42.980,   250.000,  -250.000,1.04000,    0,   835.000,   0.00190,   0.33900,   0.00000,   0.00000,1.00000,1,  100.0,  9999.000, -9999.000,   1,1.0000,   0,1.0000,   0,1.0000,   0,1.0000
10038,'1 ',   300.000,   133.080,   500.000,  -500.000,1.00000,    0,   512.000,   0.00400,   0.20000,   0.00000,   0.00000,1.00000,1,  100.0,  9999.000, -9999.000,   1,1.0000,   0,1.0000,   0,1.0000,   0,1.0000
10039,'1 ',   600.000,   300.000,   300.000,  -300.000,1.01650,    0,   911.000,   0.00100,   0.19300,   0.00000,   0.00000,1.00000,1,  100.0,  9999.000, -9999.000,   1,1.0000,   0,1.0000,   0,1.0000,   0,1.0000
10040,'1 ',   250.000,   161.370,   200.000,  -200.000,1.01000,    0,   410.000,   0.00190,   0.22840,   0.00000,   0.00000,1.00000,1,  100.0,  9999.000, -9999.000,   1,1.0000,   0,1.0000,   0,1.0000,   0,1.0000
10041,'1 ',   550.000,    69.390,   400.000,  -400.000,1.00000,    0,   911.000,   0.00100,   0.19300,   0.00000,   0.00000,1.00000,1,  100.0,  9999.000, -9999.000,   1,1.0000,   0,1.0000,   0,1.0000,   0,1.0000
10042,'1 ',   574.780,   -31.740,   600.000,  -600.000,1.05000,    0,   911.000,   0.00100,   0.19300,   0.00000,   0.00000,1.00000,1,  100.0,  9999.000, -9999.000,   1,1.0000,   0,1.0000,   0,1.0000,   0,1.0000
10043,'1 ',   170.000,    52.780,   100.000,    40.000,0.99300,    0,   410.000,   0.00190,   0.22840,   0.00000,   0.00000,1.00000,1,  100.0,  9999.000, -9999.000,   1,1.0000,   0,1.0000,   0,1.0000,   0,1.0000
10044,'1 ',    84.000,    52.270,    80.000,    40.000,1.01000,    0,   270.000,   0.00160,   0.18500,   0.00000,   0.00000,1.00000,1,  100.0,  9999.000, -9999.000,   1,1.0000,   0,1.0000,   0,1.0000,   0,1.0000
10045,'1 ',   467.000,   150.740,   210.000,  -210.000,1.05070,    0,   835.000,   0.00190,   0.33900,   0.00000,   0.00000,1.00000,1,  100.0,  9999.000, -9999.000,   1,1.0000,   0,1.0000,   0,1.0000,   0,1.0000
10046,'1 ',   623.000,   108.370,   280.000,  -280.000,1.05070,    0,   911.000,   0.00100,   0.19300,   0.00000,   0.00000,1.00000,1,  100.0,  9999.000, -9999.000,   1,1.0000,   0,1.0000,   0,1.0000,   0,1.0000
10047,'1 ',  1210.000,   420.000,   420.000,  -420.000,1.03230,    0,  1537.000,   0.00100,   0.19300,   0.00000,   0.00000,1.00000,1,  100.0,  9999.000, -9999.000,   1,1.0000,   0,1.0000,   0,1.0000,   0,1.0000
10048,'1 ',   234.000,    59.640,   100.000,  -100.000,1.01450,    0,   410.000,   0.00190,   0.22840,   0.00000,   0.00000,1.00000,1,  100.0,  9999.000, -9999.000,   1,1.0000,   0,1.0000,   0,1.0000,   0,1.0000
10049,'1 ',   372.000,   211.510,   224.000,  -224.000,1.05070,    0,   835.000,   0.00190,   0.33900,   0.00000,   0.00000,1.00000,1,  100.0,  9999.000, -9999.000,   1,1.0000,   0,1.0000,   0,1.0000,   0,1.0000
10050,'1 ',   330.000,   350.000,   350.000,     0.000,1.05070,    0,   835.000,   0.00190,   0.33900,   0.00000,   0.00000,1.00000,1,  100.0,  9999.000, -9999.000,   1,1.0000,   0,1.0000,   0,1.0000,   0,1.0000
10051,'1 ',   185.000,     9.390,   120.000,     0.000,1.05070,    0,   410.000,   0.00190,   0.22840,   0.00000,   0.00000,1.00000,1,  100.0,  9999.000, -9999.000,   1,1.0000,   0,1.0000,   0,1.0000,   0,1.0000
10052,'1 ',   410.000,   111.100,   224.000,  -224.000,1.02900,    0,   835.000,   0.00190,   0.33900,   0.00000,   0.00000,1.00000,1,  100.0,  9999.000, -9999.000,   1,1.0000,   0,1.0000,   0,1.0000,   0,1.0000
10053,'1 ',   500.000,   171.850,   200.000,  -200.000,1.05000,    0,   835.000,   0.00190,   0.33900,   0.00000,   0.00000,1.00000,1,  100.0,  9999.000, -9999.000,   1,1.0000,   0,1.0000,   0,1.0000,   0,1.0000
10054,'1 ',    37.000,    42.000,    42.000,     0.000,1.01450,    0,   125.000,   0.00400,   0.13400,   0.00000,   0.00000,1.00000,1,  100.0,  9999.000, -9999.000,   1,1.0000,   0,1.0000,   0,1.0000,   0,1.0000
10055,'1 ',   462.400,     0.000,     0.000,     0.000,1.05070,    0,   835.000,   0.00190,   0.33900,   0.00000,   0.00000,1.00000,1,  100.0,  9999.000, -9999.000,   1,1.0000,   0,1.0000,   0,1.0000,   0,1.0000
10056,'1 ',    45.000,    25.000,    25.000,     0.000,0.99670,    0,   125.000,   0.00400,   0.13400,   0.00000,   0.00000,1.00000,1,  100.0,  9999.000, -9999.000,   1,1.0000,   0,1.0000,   0,1.0000,   0,1.0000
10057,'1 ',   165.000,    90.000,    90.000,   -90.000,1.02120,    0,   410.000,   0.00190,   0.22840,   0.00000,   0.00000,1.00000,1,  100.0,  9999.000, -9999.000,   1,1.0000,   0,1.0000,   0,1.0000,   0,1.0000
10058,'1 ',   400.000,   123.410,   150.000,  -150.000,1.01450,    0,   835.000,   0.00190,   0.33900,   0.00000,   0.00000,1.00000,1,  100.0,  9999.000, -9999.000,   1,1.0000,   0,1.0000,   0,1.0000,   0,1.0000
10059,'1 ',   400.000,   149.620,   150.000,     0.000,1.00170,    0,   835.000,   0.00190,   0.33900,   0.00000,   0.00000,1.00000,1,  100.0,  9999.000, -9999.000,   1,1.0000,   0,1.0000,   0,1.0000,   0,1.0000
10060,'1 ',   116.000,    87.000,    87.000,     0.000,0.98930,    0,   270.000,   0.00160,   0.18500,   0.00000,   0.00000,1.00000,1,  100.0,  9999.000, -9999.000,   1,1.0000,   0,1.0000,   0,1.0000,   0,1.0000
10061,'1 ',  1292.000,   373.410,   600.000,  -100.000,1.05070,    0,  1611.000,   0.00100,   0.19300,   0.00000,   0.00000,1.00000,1,  100.0,  9999.000, -9999.000,   1,1.0000,   0,1.0000,   0,1.0000,   0,1.0000
10062,'1 ',   700.000,   292.630,   325.000,  -125.000,1.05070,    0,   911.000,   0.00100,   0.19300,   0.00000,   0.00000,1.00000,1,  100.0,  9999.000, -9999.000,   1,1.0000,   0,1.0000,   0,1.0000,   0,1.0000
10063,'1 ',   553.000,   142.510,   300.000,  -200.000,1.01450,    0,   911.000,   0.00100,   0.19300,   0.00000,   0.00000,1.00000,1,  100.0,  9999.000, -9999.000,   1,1.0000,   0,1.0000,   0,1.0000,   0,1.0000
10064,'1 ',    -4.200,     2.000,     2.000,    -2.000,0.99450,    0,    25.000,   0.00140,   0.12000,   0.00000,   0.00000,1.00000,1,  100.0,  9999.000, -9999.000,   1,1.0000,   0,1.0000,   0,1.0000,   0,1.0000
10065,'1 ',   -35.810,    17.350,    17.350,   -17.350,1.00000,    0,   125.000,   0.00400,   0.13400,   0.00000,   0.00000,1.00000,1,  100.0,  9999.000, -9999.000,   1,1.0000,   0,1.0000,   0,1.0000,   0,1.0000
10066,'1 ',   -26.480,    12.830,    12.830,   -12.800,1.00000,    0,   125.000,   0.00400,   0.13400,   0.00000,   0.00000,1.00000,1,  100.0,  9999.000, -9999.000,   1,1.0000,   0,1.0000,   0,1.0000,   0,1.0000
10067,'1 ',    50.000,    25.760,    38.000,   -38.000,1.00000,    0,   125.000,   0.00400,   0.13400,   0.00000,   0.00000,1.00000,1,  100.0,  9999.000, -9999.000,   1,1.0000,   0,1.0000,   0,1.0000,   0,1.0000
10068,'1 ',     8.000,     4.570,     6.000,    -6.000,1.00000,    0,    25.000,   0.00140,   0.12000,   0.00000,   0.00000,1.00000,1,  100.0,  9999.000, -9999.000,   1,1.0000,   0,1.0000,   0,1.0000,   0,1.0000
0 / END OF GENERATOR DATA, BEGIN BRANCH DATA
    1,     5,'1 ', 0.00100, 0.00600,0.00000,   0.00,   0.00,   0.00,  0.00000,  0.00000,  0.00000,  0.00000,1,   0.0,   1,1.0000,   0,1.0000,   0,1.0000,   0,1.0000
    2,     6,'1 ', 0.00100, 0.00900,0.00000,   0.00,   0.00,   0.00,  0.00000,  0.00000,  0.00000,  0.00000,1,   0.0,   1,1.0000,   0,1.0000,   0,1.0000,   0,1.0000
    2,     8,'1 ', 0.00600, 0.02700,0.05400,   0.00,   0.00,   0.00,  0.00000,  0.00000,  0.00000,  0.00000,1,   0.0,   1,1.0000,   0,1.0000,   0,1.0000,   0,1.0000
    3,     7,'1 ', 0.00000, 0.00300,0.00000,   0.00,   0.00,   0.00,  0.00000,  0.00000,  0.00000,  0.00000,1,   0.0,   1,1.0000,   0,1.0000,   0,1.0000,   0,1.0000
    3,    19,'1 ', 0.00800, 0.06900,0.13900,   0.00,   0.00,   0.00,  0.00000,  0.00000,  0.00000,  0.00000,1,   0.0,   1,1.0000,   0,1.0000,   0,1.0000,   0,1.0000
    3,   150,'1 ', 0.00100, 0.00700,0.00000,   0.00,   0.00,   0.00,  0.00000,  0.00000,  0.00000,  0.00000,1,   0.0,   1,1.0000,   0,1.0000,   0,1.0000,   0,1.0000
    4,    16,'1 ', 0.00200, 0.01900,1.12700,   0.00,   0.00,   0.00,  0.00000,  0.00000,  0.00000,  0.00000,1,   0.0,   1,1.0000,   0,1.0000,   0,1.0000,   0,1.0000
    5,     9,'1 ', 0.00600, 0.02900,0.01800,   0.00,   0.00,   0.00,  0.00000,  0.00000,  0.00000,  0.00000,1,   0.0,   1,1.0000,   0,1.0000,   0,1.0000,   0,1.0000
    7,    12,'1 ', 0.00100, 0.00900,0.07000,   0.00,   0.00,   0.00,  0.00000,  0.00000,  0.00000,  0.00000,1,   0.0,   1,1.0000,   0,1.0000,   0,1.0000,   0,1.0000
    7,   131,'1 ', 0.00100, 0.00700,0.01400,   0.00,   0.00,   0.00,  0.00000,  0.00000,  0.00000,  0.00000,1,   0.0,   1,1.0000,   0,1.0000,   0,1.0000,   0,1.0000
    8,    11,'1 ', 0.01300, 0.05950,0.03300,   0.00,   0.00,   0.00,  0.00000,  0.00000,  0.00000,  0.00000,1,   0.0,   1,1.0000,   0,1.0000,   0,1.0000,   0,1.0000
    8,    14,'1 ', 0.01300, 0.04200,0.08100,   0.00,   0.00,   0.00,  0.00000,  0.00000,  0.00000,  0.00000,1,   0.0,   1,1.0000,   0,1.0000,   0,1.0000,   0,1.0000
    9,    11,'1 ', 0.00600, 0.02700,0.01300,   0.00,   0.00,   0.00,  0.00000,  0.00000,  0.00000,  0.00000,1,   0.0,   1,1.0000,   0,1.0000,   0,1.0000,   0,1.0000
   11,    13,'1 ', 0.00800, 0.03400,0.01800,   0.00,   0.00,   0.00,  0.00000,  0.00000,  0.00000,  0.00000,1,   0.0,   1,1.0000,   0,1.0000,   0,1.0000,   0,1.0000
   12,    21,'1 ', 0.00200, 0.01500,0.11800,   0.00,   0.00,   0.00,  0.00000,  0.00000,  0.00000,  0.00000,1,   0.0,   1,1.0000,   0,1.0000,   0,1.0000,   0,1.0000
   13,    20,'1 ', 0.00600, 0.03400,0.01600,   0.00,   0.00,   0.00,  0.00000,  0.00000,  0.00000,  0.00000,1,   0.0,   1,1.0000,   0,1.0000,   0,1.0000,   0,1.0000
   14,    15,'1 ', 0.01400, 0.04200,0.09700,   0.00,   0.00,   0.00,  0.00000,  0.00000,  0.00000,  0.00000,1,   0.0,   1,1.0000,   0,1.0000,   0,1.0000,   0,1.0000
   15,    37,'1 ', 0.06500, 0.24800,0.12100,   0.00,   0.00,   0.00,  0.00000,  0.00000,  0.00000,  0.00000,1,   0.0,   1,1.0000,   0,1.0000,   0,1.0000,   0,1.0000
   15,    89,'1 ', 0.09900, 0.24800,0.03500,   0.00,   0.00,   0.00,  0.00000,  0.00000,  0.00000,  0.00000,1,   0.0,   1,1.0000,   0,1.0000,   0,1.0000,   0,1.0000
   15,    90,'1 ', 0.09600, 0.36300,0.04800,   0.00,   0.00,   0.00,  0.00000,  0.00000,  0.00000,  0.00000,1,   0.0,   1,1.0000,   0,1.0000,   0,1.0000,   0,1.0000
   16,    42,'1 ', 0.00200, 0.02200,1.28000,   0.00,   0.00,   0.00,  0.00000,  0.00000,  0.00000,  0.00000,1,   0.0,   1,1.0000,   0,1.0000,   0,1.0000,   0,1.0000
   19,    21,'1 ', 0.00200, 0.01800,0.03600,   0.00,   0.00,   0.00,  0.00000,  0.00000,  0.00000,  0.00000,1,   0.0,   1,1.0000,   0,1.0000,   0,1.0000,   0,1.0000
   19,    87,'1 ', 0.01300, 0.08000,0.15100,   0.00,   0.00,   0.00,  0.00000,  0.00000,  0.00000,  0.00000,1,   0.0,   1,1.0000,   0,1.0000,   0,1.0000,   0,1.0000
   20,    22,'1 ', 0.01600, 0.03300,0.01500,   0.00,   0.00,   0.00,  0.00000,  0.00000,  0.00000,  0.00000,1,   0.0,   1,1.0000,   0,1.0000,   0,1.0000,   0,1.0000
   20,    27,'1 ', 0.06900, 0.18600,0.09800,   0.00,   0.00,   0.00,  0.00000,  0.00000,  0.00000,  0.00000,1,   0.0,   1,1.0000,   0,1.0000,   0,1.0000,   0,1.0000
   21,    24,'1 ', 0.00400, 0.03400,0.28000,   0.00,   0.00,   0.00,  0.00000,  0.00000,  0.00000,  0.00000,1,   0.0,   1,1.0000,   0,1.0000,   0,1.0000,   0,1.0000
   22,    23,'1 ', 0.05200, 0.11100,0.05000,   0.00,   0.00,   0.00,  0.00000,  0.00000,  0.00000,  0.00000,1,   0.0,   1,1.0000,   0,1.0000,   0,1.0000,   0,1.0000
   23,    25,'1 ', 0.01900, 0.03900,0.01800,   0.00,   0.00,   0.00,  0.00000,  0.00000,  0.00000,  0.00000,1,   0.0,   1,1.0000,   0,1.0000,   0,1.0000,   0,1.0000
   24,   319,'1 ', 0.00700, 0.06800,0.13400,   0.00,   0.00,   0.00,  0.00000,  0.00000,  0.00000,  0.00000,1,   0.0,   1,1.0000,   0,1.0000,   0,1.0000,   0,1.0000
   25,    26,'1 ', 0.03600, 0.07100,0.03400,   0.00,   0.00,   0.00,  0.00000,  0.00000,  0.00000,  0.00000,1,   0.0,   1,1.0000,   0,1.0000,   0,1.0000,   0,1.0000
   26,    27,'1 ', 0.04500, 0.12000,0.06500,   0.00,   0.00,   0.00,  0.00000,  0.00000,  0.00000,  0.00000,1,   0.0,   1,1.0000,   0,1.0000,   0,1.0000,   0,1.0000
   26,   320,'1 ', 0.04300, 0.13000,0.01400,   0.00,   0.00,   0.00,  0.00000,  0.00000,  0.00000,  0.00000,1,   0.0,   1,1.0000,   0,1.0000,   0,1.0000,   0,1.0000
//  33,    34,'1 ', 0.00000, 0.06300,0.00000,   0.00,   0.00,   0.00,  0.00000,  0.00000,  0.00000,  0.00000,1,   0.0,   1,1.0000,   0,1.0000,   0,1.0000,   0,1.0000
   33,    38,'1 ', 0.00250, 0.01200,0.01300,   0.00,   0.00,   0.00,  0.00000,  0.00000,  0.00000,  0.00000,1,   0.0,   1,1.0000,   0,1.0000,   0,1.0000,   0,1.0000
   33,    40,'1 ', 0.00600, 0.02900,0.02000,   0.00,   0.00,   0.00,  0.00000,  0.00000,  0.00000,  0.00000,1,   0.0,   1,1.0000,   0,1.0000,   0,1.0000,   0,1.0000
   33,    41,'1 ', 0.00700, 0.04300,0.02600,   0.00,   0.00,   0.00,  0.00000,  0.00000,  0.00000,  0.00000,1,   0.0,   1,1.0000,   0,1.0000,   0,1.0000,   0,1.0000
   34,    42,'1 ', 0.00100, 0.00800,0.04200,   0.00,   0.00,   0.00,  0.00000,  0.00000,  0.00000,  0.00000,1,   0.0,   1,1.0000,   0,1.0000,   0,1.0000,   0,1.0000
   35,    72,'1 ', 0.01200, 0.06000,0.00800,   0.00,   0.00,   0.00,  0.00000,  0.00000,  0.00000,  0.00000,1,   0.0,   1,1.0000,   0,1.0000,   0,1.0000,   0,1.0000
   35,    76,'1 ', 0.00600, 0.01400,0.00200,   0.00,   0.00,   0.00,  0.00000,  0.00000,  0.00000,  0.00000,1,   0.0,   1,1.0000,   0,1.0000,   0,1.0000,   0,1.0000
   35,    77,'1 ', 0.01000, 0.02900,0.00300,   0.00,   0.00,   0.00,  0.00000,  0.00000,  0.00000,  0.00000,1,   0.0,   1,1.0000,   0,1.0000,   0,1.0000,   0,1.0000
   36,    88,'1 ', 0.00400, 0.02700,0.04300,   0.00,   0.00,   0.00,  0.00000,  0.00000,  0.00000,  0.00000,1,   0.0,   1,1.0000,   0,1.0000,   0,1.0000,   0,1.0000
   37,    38,'1 ', 0.00800, 0.04700,0.00800,   0.00,   0.00,   0.00,  0.00000,  0.00000,  0.00000,  0.00000,1,   0.0,   1,1.0000,   0,1.0000,   0,1.0000,   0,1.0000
   37,    40,'1 ', 0.02200, 0.06400,0.00700,   0.00,   0.00,   0.00,  0.00000,  0.00000,  0.00000,  0.00000,1,   0.0,   1,1.0000,   0,1.0000,   0,1.0000,   0,1.0000
   37,    41,'1 ', 0.01000, 0.03600,0.02000,   0.00,   0.00,   0.00,  0.00000,  0.00000,  0.00000,  0.00000,1,   0.0,   1,1.0000,   0,1.0000,   0,1.0000,   0,1.0000
   37,    49,'1 ', 0.01700, 0.08100,0.04800,   0.00,   0.00,   0.00,  0.00000,  0.00000,  0.00000,  0.00000,1,   0.0,   1,1.0000,   0,1.0000,   0,1.0000,   0,1.0000
   37,    89,'1 ', 0.10200, 0.25400,0.03300,   0.00,   0.00,   0.00,  0.00000,  0.00000,  0.00000,  0.00000,1,   0.0,   1,1.0000,   0,1.0000,   0,1.0000,   0,1.0000
   37,    90,'1 ', 0.04700, 0.12700,0.01600,   0.00,   0.00,   0.00,  0.00000,  0.00000,  0.00000,  0.00000,1,   0.0,   1,1.0000,   0,1.0000,   0,1.0000,   0,1.0000
   38,    41,'1 ', 0.00800, 0.03700,0.02000,   0.00,   0.00,   0.00,  0.00000,  0.00000,  0.00000,  0.00000,1,   0.0,   1,1.0000,   0,1.0000,   0,1.0000,   0,1.0000
   38,    43,'1 ', 0.03200, 0.08700,0.04000,   0.00,   0.00,   0.00,  0.00000,  0.00000,  0.00000,  0.00000,1,   0.0,   1,1.0000,   0,1.0000,   0,1.0000,   0,1.0000
...